##-------------------------------------------
## This file was created by mesh2input
## Date: 2022-04-07
##-------------------------------------------
Mesh2HRTF 1.0.0
##
SHTF for testing
##
## Controlparameter I
0 0 0 0 7 0
##
## Controlparameter II
1 60 0.000001 0.00e+00 1 0 0
##
## Load Frequency Curve
0 61
0.000000 0.000000e+00 0.0
0.000001 0.010000e+04 0.0
0.000002 0.020000e+04 0.0
0.000003 0.030000e+04 0.0
0.000004 0.040000e+04 0.0
0.000005 0.050000e+04 0.0
0.000006 0.060000e+04 0.0
0.000007 0.070000e+04 0.0
0.000008 0.080000e+04 0.0
0.000009 0.090000e+04 0.0
0.000010 0.100000e+04 0.0
0.000011 0.110000e+04 0.0
0.000012 0.120000e+04 0.0
0.000013 0.130000e+04 0.0
0.000014 0.140000e+04 0.0
0.000015 0.150000e+04 0.0
0.000016 0.160000e+04 0.0
0.000017 0.170000e+04 0.0
0.000018 0.180000e+04 0.0
0.000019 0.190000e+04 0.0
0.000020 0.200000e+04 0.0
0.000021 0.210000e+04 0.0
0.000022 0.220000e+04 0.0
0.000023 0.230000e+04 0.0
0.000024 0.240000e+04 0.0
0.000025 0.250000e+04 0.0
0.000026 0.260000e+04 0.0
0.000027 0.270000e+04 0.0
0.000028 0.280000e+04 0.0
0.000029 0.290000e+04 0.0
0.000030 0.300000e+04 0.0
0.000031 0.310000e+04 0.0
0.000032 0.320000e+04 0.0
0.000033 0.330000e+04 0.0
0.000034 0.340000e+04 0.0
0.000035 0.350000e+04 0.0
0.000036 0.360000e+04 0.0
0.000037 0.370000e+04 0.0
0.000038 0.380000e+04 0.0
0.000039 0.390000e+04 0.0
0.000040 0.400000e+04 0.0
0.000041 0.410000e+04 0.0
0.000042 0.420000e+04 0.0
0.000043 0.430000e+04 0.0
0.000044 0.440000e+04 0.0
0.000045 0.450000e+04 0.0
0.000046 0.460000e+04 0.0
0.000047 0.470000e+04 0.0
0.000048 0.480000e+04 0.0
0.000049 0.490000e+04 0.0
0.000050 0.500000e+04 0.0
0.000051 0.510000e+04 0.0
0.000052 0.520000e+04 0.0
0.000053 0.530000e+04 0.0
0.000054 0.540000e+04 0.0
0.000055 0.550000e+04 0.0
0.000056 0.560000e+04 0.0
0.000057 0.570000e+04 0.0
0.000058 0.580000e+04 0.0
0.000059 0.590000e+04 0.0
0.000060 0.600000e+04 0.0
##
## 1. Main Parameters I
2 2414 1212 0 0 2 1 4 0
##
## 2. Main Parameters II
0 0 0 0.0000e+00 0 0 0
##
## 3. Main Parameters III
0 0 0 0
##
## 4. Main Parameters IV
343 1.1839e+00 1.0 0.0e+00 0.0 e+00 0.0e+00 0.0e+00
##
NODES
../../ObjectMeshes/Reference/Nodes.txt
../../EvaluationGrids/FourPointHorPlane_r100cm/Nodes.txt
##
ELEMENTS
../../ObjectMeshes/Reference/Elements.txt
../../EvaluationGrids/FourPointHorPlane_r100cm/Elements.txt
##
# SYMMETRY
# 0 0 0
# 0.0000e+00 0.0000e+00 0.0000e+00
##
BOUNDARY
# Right ear velocity source
ELEM 2411 TO 2411 VELO 0.1 -1 0.0 -1
RETU
##
##
# CURVES
##
POST PROCESS
##
END
